Circuit: * C:\Users\Admin\Documents\GitHub\Eagle-Public\meng-spad-quenching\usb-power-maker-switchers.asc

Direct Newton iteration for .op point succeeded.
Ignoring empty pin current: Ix(u1:1)
Ignoring empty pin current: Ix(u1:3)
Ignoring empty pin current: Ix(u1:4)
Ignoring empty pin current: Ix(u1:15)
Ignoring empty pin current: Ix(u2:2)
Ignoring empty pin current: Ix(u2:5)
Ignoring empty pin current: Ix(u2:8)
Ignoring empty pin current: Ix(u2:9)
Ignoring empty pin current: Ix(u2:13)
Ignoring empty pin current: Ix(u1:1)
Ignoring empty pin current: Ix(u1:3)
Ignoring empty pin current: Ix(u1:4)
Ignoring empty pin current: Ix(u1:15)
Ignoring empty pin current: Ix(u2:2)
Ignoring empty pin current: Ix(u2:5)
Ignoring empty pin current: Ix(u2:8)
Ignoring empty pin current: Ix(u2:9)
Ignoring empty pin current: Ix(u2:13)
Heightened Def Con from 0.0243758 to 0.0243758

Date: Tue Mar 28 23:27:55 2017
Total elapsed time: 26.271 seconds.

tnom = 27
temp = 27
method = modified trap
totiter = 899474
traniter = 899427
tranpoints = 275791
accept = 218822
rejected = 56970
matrix size = 78
fillins = 45
solver = Normal
Thread vector: 17.2/11.3[4] 8.6/4.4[4] 3.0/2.5[2] 0.4/0.9[1]  2592/500
Matrix Compiler1: 7.71 KB object code size  2.6/1.1/[0.8]
Matrix Compiler2: 7.10 KB object code size  0.9/1.3/[0.9]


