Circuit: * C:\Users\Admin\Documents\GitHub\Eagle-Public\meng-spad-quenching\usb-power-maker-switchers.asc

Direct Newton iteration for .op point succeeded.
Ignoring empty pin current: Ix(u1:1)
Ignoring empty pin current: Ix(u1:3)
Ignoring empty pin current: Ix(u1:4)
Ignoring empty pin current: Ix(u1:15)
Ignoring empty pin current: Ix(u2:1)
Ignoring empty pin current: Ix(u2:3)
Ignoring empty pin current: Ix(u2:4)
Ignoring empty pin current: Ix(u2:15)
Ignoring empty pin current: Ix(u3:2)
Ignoring empty pin current: Ix(u3:5)
Ignoring empty pin current: Ix(u3:8)
Ignoring empty pin current: Ix(u3:9)
Ignoring empty pin current: Ix(u3:13)
Ignoring empty pin current: Ix(u1:1)
Ignoring empty pin current: Ix(u1:3)
Ignoring empty pin current: Ix(u1:4)
Ignoring empty pin current: Ix(u1:15)
Ignoring empty pin current: Ix(u2:1)
Ignoring empty pin current: Ix(u2:3)
Ignoring empty pin current: Ix(u2:4)
Ignoring empty pin current: Ix(u2:15)
Ignoring empty pin current: Ix(u3:2)
Ignoring empty pin current: Ix(u3:5)
Ignoring empty pin current: Ix(u3:8)
Ignoring empty pin current: Ix(u3:9)
Ignoring empty pin current: Ix(u3:13)
Heightened Def Con from 6.29087e-009 to 9.29087e-009
Heightened Def Con from 2.85303e-005 to 2.85313e-005
Heightened Def Con from 0.00024374 to 0.00024374

Date: Fri Mar 31 00:11:44 2017
Total elapsed time: 1.441 seconds.

tnom = 27
temp = 27
method = modified trap
totiter = 32889
traniter = 32853
tranpoints = 10573
accept = 8044
rejected = 2532
matrix size = 126
fillins = 69
solver = Normal
Thread vector: 29.9/17.0[7] 17.8/6.4[7] 4.2/3.3[4] 0.7/1.3[1]  2592/500
Matrix Compiler1: 11.18 KB object code size  5.2/3.1/[1.6]
Matrix Compiler2: 11.15 KB object code size  1.9/2.7/[1.0]


